EINE 3692344
NDER 2624230
ICHT 2401684
CHEN 2159090
SCHE 2058078
ENDE 1808194
LICH 1795107
SICH 1669502
ERDE 1585800
INDE 1552055
NDEN 1446182
RDEN 1402880
NDIE 1363088
ISCH 1347060
ICHE 1334990
AUCH 1320389
ERST 1262306
SEIN 1248096
NTER 1230100
NGEN 1175742
NICH 1164468
EITE 1151669
ANDE 1127472
TSCH 1084653
EDER 1064243
DIES 1042961
NACH 1034475
DERS 1024629
ESCH 1022874
ÜBER 1013830
EREI 1003439
CHTE 974771
UNDE 953887
EICH 952580
NUND 952127
INER 951293
ERUN 939843
ENUN 936788
DASS 935177
TEIN 921075
NSCH 912795
NEIN 910519
SCHA 898480
TION 895741
ENDI 892448
RSCH 881504
CHER 874466
UNGE 874390
EGEN 871442
REIN 869710
STEN 868971
SCHL 860900
ALLE 851770
INEN 849743
DERE 830412
ERTE 830202
EREN 816530
RDIE 812858
ANGE 796217
UNTE 794394
NDES 794170
ISTE 791954
IERT 778832
IGEN 765050
SSEN 751898
AUFD 746122
EIDE 745558
UNGS 735658
RUNG 735018
ERGE 720658
WERD 709437
STER 708955
JAHR 692452
HABE 685111
RUND 683916
INEM 681226
TDER 679783
IEDE 668304
ENAU 668085
ERIN 667676
CHEI 665245
ENBE 662629
EBEN 656357
LLEN 655071
ABEN 654154
DERA 651846
ENGE 651504
SAGT 648788
ERNE 647952
TERN 642791
RICH 636581
AHRE 636521
ABER 635294
ERSC 632025
TUNG 631173
IESE 630237
ENSI 629447
RDER 626824
ELLE 620089
ERBE 614065
ERDI 608825
EDIE 607495
GEND 606586
DERB 605223
ENST 603775
RSTE 599394
TLIC 598915
ERAU 596435
ESTE 594495
WEIT 594009
TDIE 592265
UNDD 592236
INGE 591893
BEID 588513
DEUT 585227
CHAF 579142
GEGE 578523
MMEN 575849
TELL 575077
HAFT 572047
SIND 572013
WIRD 571658
STEL 571246
ITER 569826
NVER 561445
LAND 557615
NOCH 554372
EINS 542364
ENER 540620
RBEI 540016
HEIN 539071
DERN 538495
TENS 537841
BERE 537838
HREN 537678
VERS 537163
EEIN 535789
FÜRD 534870
ACHT 533997
ASSE 532358
RECH 527621
SPIE 527075
ENEN 527005
EIST 519739
TEND 519644
ONDE 518425
SCHW 514227
TEIL 513871
TUND 511995
ERHA 511417
EURO 509827
ENSC 506424
NNEN 505517
EITS 504737
ENIN 503937
GESC 503110
IERE 499164
CHDE 498510
INTE 498470
PIEL 498075
ENWI 496726
REIT 493025
ZEIT 489460
AGTE 487609
KOMM 486050
ORDE 484624
EHEN 484557
RVER 481805
UFDE 480678
ETZT 477187
TERS 476258
ZENT 473365
ATTE 472553
ENZU 469574
MEIN 469536
ENDA 466903
ITDE 466647
ERWE 464860
IDEN 463460
ATIO 463038
MITD 458288
AGEN 457323
IELE 455879
ENWE 453181
ALTE 452152
GENE 451380
OMME 449828
NIST 449400
UTSC 448343
SCHU 448291
ENHA 446700
URDE 446045
DIEN 445424
DENS 441051
ICHD 440100
ERAN 437573
ARBE 437331
LLER 434983
BEIT 433809
EUTS 432315
DERD 431975
UNGD 430273
MITT 429741
DERT 429156
CHDI 427019
RTEN 425648
ESSE 425286
MEHR 424438
STAN 424212
ITTE 423670
EVER 423654
HDIE 423617
CHTS 423473
DERG 423385
ENEI 421367
LTEN 419623
LUNG 419169
IEBE 417049
STEI 413735
SCHI 413434
WURD 412900
ENVO 411723
ONEN 411533
CHWE 408405
EUND 407331
IONE 407191
HMEN 406774
DERF 406035
BUND 403838
ENVE 402903
ERLI 402516
NDAS 401757
ERVE 400416
ACHE 400006
DERK 399843
RSTA 399622
ERER 399123
ENAN 398734
FAHR 398372
SOLL 397082
NTEN 396833
OLLE 396605
FFEN 395883
IEGE 395423
ESIC 394817
UNDS 393616
HATT 392823
TAND 391572
ROZE 391409
PROZ 390480
BERD 389387
NEHM 388102
TDAS 387849
DERV 386868
NGDE 385686
REIC 384487
INES 382285
NGES 381624
WIED 380823
URCH 380794
EIND 380554
SDIE 380436
ENTE 379838
DENN 378001
ARTE 376704
DURC 374396
DIEB 373898
ERNA 373896
NMIT 373661
ZWEI 373597
NSTA 373393
HEND 371855
ITEN 371346
EIGE 371219
TIGE 368204
DERM 367052
INDI 365898
EHME 365607
TERE 365352
DENE 364554
IHRE 363472
ERMI 362624
NAUF 362578
HAND 362131
GEST 362054
DIEA 361931
NAUS 361051
SDER 360292
KEIN 360158
ERRE 359510
ENMI 359501
CHAU 359374
RIGE 358394
ERVO 356662
TEDE 354742
HALT 354550
NSEI 351975
REIS 351535
NGER 351500
NWIR 350982
RÜCK 349739
SVER 349683
EISE 349672
OZEN 349551
KANN 349359
RAUS 349310
HAUS 349126
ENSE 348375
ERSI 348295
NDDE 347595
VERL 344408
TTEN 344177
ERWA 343500
UCHD 343499
DERW 343107
NSIC 342867
RAUF 342446
ILLI 341750
NEUE 341736
NNTE 341217
NERS 339860
ICHA 339071
TWER 338371
CHLA 338231
ENTS 336539
ENSO 336103
DERU 335391
ERSE 334959
KÖNN 333335
DEND 332953
STRA 332574
ERLE 330937
LEIN 329826
ODER 329775
OCHE 329642
MANN 329164
MMER 328301
ESTA 327996
HRER 327306
TENA 325980
ERIC 325396
CHIN 324645
IDER 322800
AUFE 322800
CHNI 322326
CHST 320538
AUSD 318957
ERTR 318621
CHTI 318397
IGER 317675
ENSA 315971
DENT 315479
ÜRDI 314470
FALL 313582
CHNE 312719
STAG 312261
DIEE 311941
EING 311801
SETZ 311715
GENS 308476
TZEN 306752
REND 306330
GANG 305041
RMIT 304966
BEND 304622
SCHÄ 303809
MACH 303657
AUSG 303204
SSCH 303092
SCHR 302489
SEIT 302362
GENA 301739
TSIC 301708
GEBE 300996
LANG 300965
STEH 300787
DERP 300342
AKTI 299634
MENS 299566
TAUF 298655
INAN 298173
EDEN 297198
ECHT 296598
GDER 295970
INNE 295935
DERZ 295012
AMIT 293814
ERZE 293694
ABEI 293382
ERMA 292900
RDAS 292880
DENA 291237
VIEL 290891
BEST 290357
HEIT 289815
SCHO 289711
FÜHR 289565
VERB 289451
ERWI 288989
LEIC 288941
ENTA 288428
BEIM 288373
TISC 288272
RTEI 286850
GUNG 285428
FOLG 284857
TIER 284214
NSTE 283751
UNKT 283401
DERL 283093
MENT 282660
LAGE 282348
RDEM 280768
ETER 280678
SSER 280309
ERDA 280164
DENK 279641
VOND 278982
ESEN 278885
ERLA 278172
RIST 278075
AUSS 277544
SIST 277537
TERD 277327
DDIE 276555
INEI 276439
MARK 276357
IEIN 275970
DERH 275609
DAMI 274697
MILL 274634
ATEN 273791
VORS 273682
NVON 273680
EMIT 273452
IERU 273208
UCHE 273000
HTEN 272887
RGER 272189
DERI 270830
EVON 270743
POLI 270206
EAUF 269669
ISTD 268340
NEND 267664
IMME 266863
TSEI 266801
GLIC 265838
TESI 264384
ERAL 262406
ERSP 262219
MITE 261848
USDE 261624
GESE 260930
BERL 259867
BETR 259829
TVER 259687
NKEN 259680
NIND 258980
NUNG 258780
CHSE 258163
ENNE 258045
DIEG 258006
NSAG 257921
SEND 256995
SGES 256838
ÜRDE 256740
GABE 255191
ERSO 255128
SUND 254962
DERR 254711
ITEI 254594
DABE 254131
ERZU 254104
CHUN 253248
DANN 252506
ICHS 252334
ETEN 252092
VERT 251855
JÄHR 251264
NSIE 250796
NBER 250683
DENB 250571
LASS 250072
FREI 249822
CHRI 249617
DUNG 249372
DEIN 248627
LLTE 248112
BERG 247947
WARE 247704
DIEK 247079
TRAG 246639
DING 246528
MEND 246250
NNER 245608
HDER 245550
ERKA 244912
ENEU 244633
TERI 244623
ÄNDE 244608
RAUC 244009
DDER 243851
RNEH 243743
EMEI 243514
SUCH 242426
ASSD 242397
NENS 242156
ENKO 242070
ICHN 241439
SSTE 241311
DIEF 241029
EUER 240766
ERFA 240725
ERKE 240707
LETZ 240695
NTAG 240316
HENS 240236
NDDI 239649
USGE 239477
DIEM 239000
HRIG 238637
BERI 238161
ERPR 236168
IONS 234961
INGS 234759
RAGE 234705
STUN 234633
EUTE 234509
WEIS 234377
GROß 234304
CHEF 233893
WELT 233800
RLIN 233762
MINI 233532
RZEI 233099
NWER 233057
ÄHRI 232845
INIS 232537
NVOR 232380
SOND 232350
EAUS 232225
STAR 231705
DENW 231506
ERBA 231337
ÜSSE 231295
EINT 230703
ERNI 230303
RGES 230193
WOCH 229934
EDAS 229289
ERES 229110
KEIT 228550
MUSS 228130
ACHD 226916
EINI 226800
RING 226596
DASI 226515
GEME 226479
ERHE 226375
TENW 226104
EVOR 225805
ÖNNE 225333
EMAN 225285
DASG 224731
INST 224645
CHDA 224536
STAD 224052
NENE 223830
ANDI 223637
ECHE 223318
LDER 223279
CHLI 223162
ISTI 223143
CHMI 222765
HTIG 222738
ESEI 222002
DIED 221790
ELTE 221633
TMIT 221215
FINA 221159
RALS 220750
GERI 220633
NDEL 220370
NFÜR 220369
ERKL 220307
TZTE 219759
TETE 219624
AUFS 219315
UNDA 219295
TEDI 219212
TENE 218266
CHES 217856
NISC 217779
BERN 217594
TDEM 217178
LERD 216903
RAND 216406
FDER 216176
ISSE 215765
ERGA 215765
VERG 215355
KTIO 214988
DERJ 214927
RTSC 214842
NÜBE 214793
STRE 214686
AMME 214349
AUFG 214147
ENMA 214034
MDIE 214021
AREN 213822
RITT 213664
ERME 213485
ENTI 213418
DIER 213356
ONZE 213160
RSEI 213132
ERSA 213124
ESER 212893
ZAHL 212530
SCHN 212493
EINF 211928
GLEI 211619
TENI 211338
WENN 211247
LAUF 210850
NEUR 210837
ONAL 210823
ORGE 210755
CHON 210418
BENS 210101
CHGE 209922
EDES 209444
BERA 209339
ANNT 209173
ERFO 208718
IENS 208623
ENFÜ 208560
LEGE 208422
NHAT 208184
GEWI 207970
TENB 207937
TRIE 207621
RIND 207595
RVOR 207510
TERA 207383
ACHS 207210
FDIE 207083
REGI 207080
NBEI 206766
BANK 206482
RESS 205887
ECHN 205738
ITZE 203970
OFFE 203571
KAUF 203440
ENWA 203390
RGAN 203317
EMEN 203264
ERKO 203197
SIER 203110
AUTO 202804
CHUL 202532
NDEM 202439
LTER 202349
RWAR 202290
SATZ 202103
CHBE 202017
TDEN 201733
BILD 201685
ENRE 201672
ANKE 201583
NPRO 201452
KONZ 201297
DIEV 200917
EMBE 200615
DIEP 200507
IONA 200441
SPRE 200378
TZUN 199951
GENU 199735
RDIN 199327
VERK 199189
NDEI 199103
RACH 198976
CHTD 198961
ENTR 198723
PORT 198716
ENTL 198498
WILL 198437
HUNG 198418
ENIM 198410
SAMM 198338
LEBE 198324
RANK 198265
HTER 198135
PUNK 198081
MBER 197995
ONNT 197682
AUER 197556
HALB 197419
NSOL 197204
ERGR 197099
THAT 196939
EINB 196926
SPRO 196763
NDUN 196495
WIRT 196202
NNIC 196130
CHAN 196049
TADT 195740
ENKA 194628
STIM 194561
UFDI 194404
CHTA 194387
NIGE 194352
SENS 194330
ENNA 194234
BURG 193982
MEIS 193297
GIER 193127
TIMM 192767
ENPR 192761
RGEN 192689
ZUNG 192590
ESTI 192575
CHÄF 192457
RSIC 192143
TTEL 191932
RNIC 191930
ZIEL 191621
NDET 191531
TEHE 191472
RDES 191367
TIST 190612
WERT 190426
NGEB 190357
ELLT 190314
HÄFT 190290
NENT 190184
FORM 190044
ARKT 189916
TAUS 189903
CHIE 189820
UNDM 189626
EBER 189580
DENV 189456
ICHI 188651
VIER 188582
ITUN 188286
EITA 188117
TVON 187643
ERBR 187553
NWIE 187412
SSIC 187211
EGES 186718
TFÜR 186649
PART 186467
TENU 186306
NDEU 185979
NANZ 185593
BERS 185478
AUSE 185383
ENNI 185378
GRUN 185308
NDIG 184912
ERFÜ 184884
ESIN 184664
CHWI 184615
EKOM 184606
PRÄS 184398
RALL 184368
FEIN 184310
EFÜR 183979
ENBA 183973
ENFA 183856
SITZ 183721
IGTE 183571
GEHE 183358
NGEL 183000
ASSI 182916
ANIS 182837
FEST 182621
EWER 182456
TIND 182273
ENIS 182234
ENAB 182169
ETWA 182016
EINZ 181921
DEST 181299
FRAG 180866
AHME 180750
TWOR 180665
EINM 180415
GENT 180373
ANDS 180293
UCHT 180047
HLEN 179973
IRTS 179795
SMIT 179423
GESA 179417
TEST 179222
TAGE 178898
HERS 178818
BESC 178758
DASE 178698
USST 178482
DASW 178431
MITS 178208
DENM 178119
HLAN 177982
LLES 177771
USCH 177665
DREI 177618
RIEB 177587
UNGA 177559
SLAN 177518
ENSP 177401
AUßE 177237
TTER 176953
HTET 176916
ERAT 176691
EIBE 176632
EBEI 176540
AMEN 176410
PLAT 176290
NZER 176237
GENW 176089
RBER 175942
ENAC 175909
ENHE 175845
SSEI 175611
UNDI 175394
STAA 174815
OLLT 174762
CHTU 174700
SEHE 174636
RWEI 174410
HENA 174061
ASIS 173963
ESPR 173841
ISTA 173619
DIEW 173586
TENM 173301
ENTW 173127
TAAT 173034
IETE 172743
UNDB 172614
EINA 172543
ONNE 172524
NSER 172457
OSTE 172365
RHEI 171931
EITU 171874
NAHM 171786
DESS 171619
KIND 171525
LION 171475
DSCH 171251
LITI 171118
RTRA 171112
RVON 171088
UßER 171006
DOCH 170761
TENT 170745
UNDW 170663
UNGV 170604
ENAL 170444
FRAN 170437
RÜBE 170368
HNIC 170282
GVON 169801
ERHI 169709
ENWO 169630
WOLL 169629
WORD 169486
CKEN 169482
ERFR 169454
NTLI 169258
MÜSS 168954
KUND 168628
LLIO 168321
BEIS 168244
NKÖN 167961
GENI 167429
DENG 167247
PREC 167148
ENUM 166601
HRUN 166416
DASB 166405
ENÜB 166222
STIE 166124
LEIT 166120
ANTE 166007
RENT 165802
HRES 165642
RGEB 165455
DENU 164880
NTEI 164832
HENE 164373
HTUN 164338
NDDA 164120
LLEI 164116
DENF 163950
ERIS 163885
ERNS 163600
OLGE 163557
NGVO 163245
ESAM 163139
NSTI 163067
ASCH 163004
NAND 162935
OBER 162923
TEER 162909
KLÄR 162730
ABGE 162654
GIBT 162562
HEIM 162478
WART 162225
NENA 162172
ESET 161993
NTSC 161992
RENZ 161960
STAT 161880
NIER 161678
GERA 161615
MVER 161582
RLIC 161554
LIEß 161336
VORD 161322
RERS 161180
ENZE 161156
IGUN 161137
TIVE 160920
ERBU 160809
NTRA 160785
GEIN 160566
CHZU 160380
GERE 160371
TENZ 160317
TREI 160105
SAMT 159961
WEIL 159844
RENS 159294
LEND 158948
ALEN 158861
HERA 158671
NSIN 158635
SVOR 158627
GDES 158624
WISC 158555
NATI 158294
ÖGLI 158251
HIND 158240
MÖGL 158070
SELB 158062
VERF 158028
ENME 157937
SAUF 157798
HSTE 157630
ASGE 156995
DIET 156813
UNDF 156788
SERE 156726
BLIC 156601
GUND 156478
AUFT 156417
ANDA 156402
TERH 156395
NJAH 156362
FDEM 155978
NWEI 155945
LIEG 155788
SWIR 155750
UFEN 155686
ICHB 155542
NHEI 155359
NNAC 155246
TENV 154964
HMIT 154843
ICHK 154651
AFTS 154534
NAUC 154431
SSDI 154372
IEAU 154221
HERE 154158
RNEU 154067
IESI 154014
ZEIG 153861
ESON 153819
INSA 153789
SION 153440
ROßE 153383
NERA 153096
NERG 152951
UGEN 152800
UFEI 152715
NEBE 152691
ELDE 152634
